Version 4
SHEET 1 1016 680
WIRE 384 -512 272 -512
WIRE 272 -464 272 -512
WIRE 384 -464 384 -512
WIRE 272 -304 272 -384
WIRE 272 -304 64 -304
WIRE 464 -304 272 -304
WIRE 704 -304 464 -304
WIRE 704 -288 704 -304
WIRE 464 -224 464 -304
WIRE 272 -176 272 -304
WIRE 704 -160 704 -208
WIRE 944 -160 704 -160
WIRE 704 -112 704 -160
WIRE 272 -32 272 -96
WIRE 336 -32 272 -32
WIRE 464 -32 464 -144
WIRE 464 -32 400 -32
WIRE 656 -32 464 -32
WIRE 64 0 64 -304
WIRE 704 16 704 -16
WIRE 704 16 592 16
WIRE 704 48 704 16
WIRE 464 64 464 -32
WIRE 592 64 592 16
WIRE 272 128 272 -32
WIRE 464 192 464 144
WIRE 592 192 592 128
WIRE 704 192 704 128
WIRE -336 208 -352 208
WIRE -272 208 -336 208
WIRE -96 208 -192 208
WIRE 64 208 64 80
WIRE 64 208 -32 208
WIRE 224 208 64 208
WIRE -352 288 -352 208
WIRE 64 288 64 208
WIRE 272 320 272 224
WIRE -352 448 -352 368
WIRE 64 448 64 368
WIRE 272 448 272 400
FLAG -352 448 0
FLAG -336 208 Vin
FLAG 272 448 0
FLAG 944 -160 Vout
FLAG 704 192 0
FLAG 64 448 0
FLAG 464 192 0
FLAG 592 192 0
FLAG 384 -464 0
SYMBOL nmos 224 128 R0
SYMATTR InstName M1
SYMATTR Value 2N7002
SYMBOL nmos 656 -112 R0
SYMATTR InstName M2
SYMATTR Value 2N7002
SYMBOL res -176 192 R90
WINDOW 0 0 56 VBottom 2
WINDOW 3 32 56 VTop 2
SYMATTR InstName R2
SYMATTR Value 1k
SYMBOL res 256 304 R0
SYMATTR InstName R1
SYMATTR Value 1k
SYMBOL res 688 -304 R0
SYMATTR InstName R5
SYMATTR Value 5.1k
SYMBOL res 688 32 R0
SYMATTR InstName R3
SYMATTR Value 1k
SYMBOL res 48 272 R0
SYMATTR InstName R6
SYMATTR Value 33k
SYMBOL res 48 -16 R0
SYMATTR InstName R7
SYMATTR Value 100k
SYMBOL res 448 -240 R0
SYMATTR InstName R4
SYMATTR Value 100k
SYMBOL res 448 48 R0
SYMATTR InstName R8
SYMATTR Value 33k
SYMBOL res 256 -192 R0
SYMATTR InstName R9
SYMATTR Value 5.1k
SYMBOL cap 576 64 R0
SYMATTR InstName C3
SYMATTR Value 1.8”
SYMBOL cap -32 192 R90
WINDOW 0 0 32 VBottom 2
WINDOW 3 32 32 VTop 2
SYMATTR InstName C1
SYMATTR Value 1”
SYMBOL cap 400 -48 R90
WINDOW 0 0 32 VBottom 2
WINDOW 3 32 32 VTop 2
SYMATTR InstName C2
SYMATTR Value 1”
SYMBOL voltage 272 -368 R180
WINDOW 0 24 96 Left 2
WINDOW 3 24 16 Left 2
WINDOW 123 0 0 Left 0
WINDOW 39 0 0 Left 0
SYMATTR InstName V1
SYMATTR Value 15
SYMBOL voltage -352 272 R0
WINDOW 123 24 124 Left 2
WINDOW 39 0 0 Left 0
SYMATTR Value2 AC 1
SYMATTR InstName V2
SYMATTR Value SINE(1 10m 1k)
TEXT -680 -464 Left 2 !.op
TEXT -680 -440 Left 2 !;tran 0.01
TEXT -688 -416 Left 2 !;ac dec 100 1 100meg
